REMARK  10 active torsions:
REMARK  status: ('A' for Active; 'I' for Inactive)
REMARK    1  A    between atoms: C1_1  and  C16_16 
REMARK    2  A    between atoms: C1_1  and  N3_3 
REMARK    3  A    between atoms: N3_3  and  C4_4 
REMARK    4  A    between atoms: C4_4  and  C13_13 
REMARK    5  A    between atoms: C4_4  and  C5_5 
REMARK    6  A    between atoms: C5_5  and  C6_6 
REMARK    7  A    between atoms: C6_6  and  C7_7 
REMARK    8  A    between atoms: C13_13  and  O14_14 
REMARK       I    between atoms: C16_16  and  N18_18 
REMARK    9  A    between atoms: C22_22  and  C23_23 
REMARK   10  A    between atoms: C23_23  and  O24_24 
ROOT
ATOM      1  C1  MOL     1       0.542   1.643  -1.597  1.00  0.00     0.308 C 
ATOM      2  C2  MOL     1       1.268   2.833  -0.971  1.00  0.00     0.053 C 
ENDROOT
BRANCH   1   3
ATOM      3  C16 MOL     1      -0.426   2.211  -2.664  1.00  0.00     0.253 C 
ATOM      4  N18 MOL     1      -1.665   1.622  -2.829  1.00  0.00    -0.336 N 
ATOM      5  C19 MOL     1      -2.062   0.350  -2.257  1.00  0.00     0.127 C 
ATOM      6  C22 MOL     1      -2.558   2.021  -3.912  1.00  0.00     0.185 C 
ATOM      7  C20 MOL     1      -3.244  -0.188  -3.079  1.00  0.00     0.022 C 
ATOM      8  C21 MOL     1      -3.500   0.829  -4.185  1.00  0.00     0.038 C 
ATOM      9  O17 MOL     1      -0.129   3.224  -3.327  1.00  0.00    -0.271 OA
BRANCH   6  10
ATOM     10  C23 MOL     1      -3.359   3.278  -3.572  1.00  0.00     0.163 C 
ATOM     11  O25 MOL     1      -4.561   3.332  -3.313  1.00  0.00    -0.648 OA
BRANCH  10  12
ATOM     12  O24 MOL     1      -2.737   4.485  -3.590  1.00  0.00    -0.775 OA
ATOM     13  H49 MOL     1      -1.789   4.382  -3.778  1.00  0.00     0.167 HD
ENDBRANCH  10  12
ENDBRANCH   6  10
ENDBRANCH   1   3
BRANCH   1  14
ATOM     14  N3  MOL     1       1.410   0.673  -2.246  1.00  0.00     0.111 N 
ATOM     15  H30 MOL     1       0.891  -0.148  -2.499  1.00  0.00     0.318 HD
BRANCH  14  16
ATOM     16  C4  MOL     1       2.617   0.311  -1.526  1.00  0.00     0.318 C 
BRANCH  16  17
ATOM     17  C13 MOL     1       3.477  -0.622  -2.369  1.00  0.00     0.174 C 
ATOM     18  O15 MOL     1       4.685  -0.529  -2.595  1.00  0.00    -0.648 OA
BRANCH  17  19
ATOM     19  O14 MOL     1       2.827  -1.701  -2.886  1.00  0.00    -0.775 OA
ATOM     20  H41 MOL     1       3.447  -2.236  -3.410  1.00  0.00     0.167 HD
ENDBRANCH  17  19
ENDBRANCH  16  17
BRANCH  16  21
ATOM     21  C5  MOL     1       2.422  -0.359  -0.153  1.00  0.00     0.051 C 
BRANCH  21  22
ATOM     22  C6  MOL     1       3.702  -0.304   0.658  1.00  0.00     0.041 C 
BRANCH  22  23
ATOM     23  C7  MOL     1       3.580  -1.064   1.932  1.00  0.00    -0.058 A 
ATOM     24  C12 MOL     1       4.378  -2.189   2.165  1.00  0.00     0.007 A 
ATOM     25  C11 MOL     1       4.274  -2.889   3.367  1.00  0.00     0.001 A 
ATOM     26  C10 MOL     1       3.372  -2.471   4.345  1.00  0.00     0.000 A 
ATOM     27  C9  MOL     1       2.575  -1.349   4.119  1.00  0.00     0.001 A 
ATOM     28  C8  MOL     1       2.679  -0.647   2.920  1.00  0.00     0.007 A 
ENDBRANCH  22  23
ENDBRANCH  21  22
ENDBRANCH  16  21
ENDBRANCH  14  16
ENDBRANCH   1  14
TORSDOF 10
