REMARK  7 active torsions:
REMARK  status: ('A' for Active; 'I' for Inactive)
REMARK    1  A    between atoms: N5_5  and  C8_8 
REMARK    2  A    between atoms: C11_11  and  C12_12 
REMARK       I    between atoms: C12_12  and  N14_14 
REMARK    3  A    between atoms: N14_14  and  C15_15 
REMARK    4  A    between atoms: C21_21  and  C22_22 
REMARK    5  A    between atoms: C22_22  and  C23_23 
REMARK    6  A    between atoms: C33_33  and  N34_34 
REMARK    7  A    between atoms: N34_34  and  C35_35 
ROOT
ATOM      1  C1  MOL     1       8.647   4.421  -2.353  1.00  0.00     0.310 C 
ATOM      2  N2  MOL     1       7.763   3.543  -1.623  1.00  0.00     0.087 N 
ATOM      3  C3  MOL     1       7.973   2.140  -1.949  1.00  0.00     0.291 C 
ATOM      4  C4  MOL     1       7.041   1.196  -1.164  1.00  0.00     0.153 C 
ATOM      5  N5  MOL     1       5.644   1.585  -1.264  1.00  0.00    -0.377 N 
ATOM      6  C6  MOL     1       5.419   2.990  -0.961  1.00  0.00     0.153 C 
ATOM      7  C7  MOL     1       6.365   3.925  -1.743  1.00  0.00     0.291 C 
ENDROOT
BRANCH   5   8
ATOM      8  C8  MOL     1       4.694   0.677  -0.739  1.00  0.00     0.032 A 
ATOM      9  C9  MOL     1       5.078  -0.491  -0.040  1.00  0.00     0.030 A 
ATOM     10  C10 MOL     1       4.115  -1.387   0.398  1.00  0.00     0.022 A 
ATOM     11  C11 MOL     1       2.757  -1.159   0.183  1.00  0.00     0.058 A 
ATOM     12  C33 MOL     1       2.336  -0.013  -0.543  1.00  0.00     0.046 A 
ATOM     13  C41 MOL     1       3.322   0.892  -0.991  1.00  0.00     0.059 A 
BRANCH  11  14
ATOM     14  C12 MOL     1       1.796  -2.161   0.727  1.00  0.00     0.259 C 
ATOM     15  N14 MOL     1       0.906  -1.656   1.677  1.00  0.00    -0.305 N 
ATOM     16  H55 MOL     1       0.958  -0.689   1.906  1.00  0.00     0.170 HD
ATOM     17  O13 MOL     1       1.807  -3.351   0.383  1.00  0.00    -0.267 OA
BRANCH  15  18
ATOM     18  C15 MOL     1      -0.048  -2.376   2.385  1.00  0.00     0.163 A 
ATOM     19  N16 MOL     1      -0.259  -3.729   2.374  1.00  0.00    -0.155 NA
ATOM     20  N17 MOL     1      -1.301  -3.986   3.182  1.00  0.00    -0.275 N 
ATOM     21  H56 MOL     1      -1.498  -4.926   3.431  1.00  0.00     0.189 HD
ATOM     22  C18 MOL     1      -1.780  -2.838   3.821  1.00  0.00     0.064 A 
ATOM     23  C32 MOL     1      -1.008  -1.735   3.306  1.00  0.00     0.040 A 
ATOM     24  C19 MOL     1      -2.808  -2.618   4.752  1.00  0.00     0.032 A 
ATOM     25  C31 MOL     1      -1.282  -0.433   3.711  1.00  0.00     0.025 A 
ATOM     26  C21 MOL     1      -2.304  -0.223   4.634  1.00  0.00    -0.053 A 
ATOM     27  C20 MOL     1      -3.045  -1.312   5.146  1.00  0.00     0.010 A 
BRANCH  26  28
ATOM     28  C22 MOL     1      -2.585   1.160   5.114  1.00  0.00     0.077 C 
BRANCH  28  29
ATOM     29  C23 MOL     1      -4.035   1.495   5.215  1.00  0.00    -0.048 A 
ATOM     30  C24 MOL     1      -4.901   1.213   4.156  1.00  0.00     0.049 A 
ATOM     31  C25 MOL     1      -6.260   1.560   4.254  1.00  0.00     0.119 A 
ATOM     32  F26 MOL     1      -7.100   1.280   3.229  1.00  0.00    -0.206 F 
ATOM     33  C27 MOL     1      -6.762   2.195   5.402  1.00  0.00     0.084 A 
ATOM     34  C28 MOL     1      -5.875   2.476   6.454  1.00  0.00     0.119 A 
ATOM     35  F29 MOL     1      -6.336   3.090   7.569  1.00  0.00    -0.206 F 
ATOM     36  C30 MOL     1      -4.515   2.127   6.365  1.00  0.00     0.049 A 
ENDBRANCH  28  29
ENDBRANCH  26  28
ENDBRANCH  15  18
ENDBRANCH  11  14
BRANCH  12  37
ATOM     37  N34 MOL     1       0.971   0.218  -0.734  1.00  0.00    -0.384 N 
ATOM     38  H65 MOL     1       0.409  -0.608  -0.726  1.00  0.00     0.160 HD
BRANCH  37  39
ATOM     39  C35 MOL     1       0.511   1.214  -1.687  1.00  0.00     0.085 C 
ATOM     40  C36 MOL     1      -0.862   0.848  -2.281  1.00  0.00     0.051 C 
ATOM     41  C37 MOL     1      -1.306   1.929  -3.251  1.00  0.00     0.169 C 
ATOM     42  O38 MOL     1      -1.364   3.208  -2.632  1.00  0.00    -0.391 OA
ATOM     43  C39 MOL     1      -0.116   3.606  -2.075  1.00  0.00     0.169 C 
ATOM     44  C40 MOL     1       0.391   2.610  -1.049  1.00  0.00     0.051 C 
ENDBRANCH  37  39
ENDBRANCH  12  37
ENDBRANCH   5   8
TORSDOF 7
