REMARK  5 active torsions:
REMARK  status: ('A' for Active; 'I' for Inactive)
REMARK    1  A    between atoms: C8_8  and  C9_9 
REMARK    2  A    between atoms: C9_9  and  C10_10 
REMARK    3  A    between atoms: C19_19  and  N21_21 
REMARK       I    between atoms: N21_21  and  C22_22 
REMARK    4  A    between atoms: C22_22  and  C24_24 
REMARK    5  A    between atoms: C42_42  and  O43_43 
ROOT
ATOM      1  C1  MOL     1      -3.283  -2.220  -0.657  1.00  0.00     0.173 C 
ATOM      2  C2  MOL     1      -2.787  -3.024  -1.876  1.00  0.00     0.034 C 
ATOM      3  C3  MOL     1      -4.016  -3.864  -2.263  1.00  0.00     0.022 C 
ATOM      4  C4  MOL     1      -5.238  -3.167  -1.608  1.00  0.00     0.127 C 
ATOM      5  N5  MOL     1      -4.713  -2.039  -0.842  1.00  0.00    -0.338 N 
ATOM      6  C6  MOL     1      -5.439  -0.986  -0.322  1.00  0.00     0.243 C 
ATOM      7  O7  MOL     1      -6.639  -1.036  -0.019  1.00  0.00    -0.271 OA
ATOM      8  C8  MOL     1      -4.628   0.342  -0.138  1.00  0.00     0.189 C 
ATOM      9  N16 MOL     1      -3.316   0.069   0.386  1.00  0.00    -0.277 N 
ATOM     10  C17 MOL     1      -2.644   0.412   1.543  1.00  0.00     0.280 A 
ATOM     11  O18 MOL     1      -3.091   1.101   2.465  1.00  0.00    -0.268 OA
ATOM     12  C19 MOL     1      -1.227  -0.259   1.493  1.00  0.00     0.220 A 
ATOM     13  C20 MOL     1      -1.089  -1.217   2.676  1.00  0.00     0.082 C 
ATOM     14  O41 MOL     1      -1.242  -1.058   0.272  1.00  0.00    -0.296 OA
ATOM     15  C42 MOL     1      -2.495  -0.893  -0.435  1.00  0.00     0.276 A 
ENDROOT
BRANCH  15  16
ATOM     16  O43 MOL     1      -2.106  -0.358  -1.675  1.00  0.00    -0.347 OA
ATOM     17  H80 MOL     1      -1.603   0.452  -1.510  1.00  0.00     0.215 HD
ENDBRANCH  15  16
BRANCH  12  18
ATOM     18  N21 MOL     1      -0.216   0.766   1.410  1.00  0.00    -0.321 N 
ATOM     19  C22 MOL     1       1.142   0.471   1.350  1.00  0.00     0.226 C 
ATOM     20  O23 MOL     1       1.566  -0.695   1.358  1.00  0.00    -0.273 OA
ATOM     21  H62 MOL     1      -0.502   1.715   1.399  1.00  0.00     0.166 HD
BRANCH  19  22
ATOM     22  C24 MOL     1       2.085   1.673   1.265  1.00  0.00     0.107 C 
ATOM     23  C40 MOL     1       3.524   1.203   1.160  1.00  0.00     0.027 C 
ATOM     24  C39 MOL     1       4.491   2.392   1.197  1.00  0.00     0.054 C 
ATOM     25  C37 MOL     1       5.914   1.868   1.230  1.00  0.00    -0.039 C 
ATOM     26  C28 MOL     1       4.196   3.270   2.462  1.00  0.00     0.235 C 
ATOM     27  C36 MOL     1       6.404   0.652   0.773  1.00  0.00     0.008 C 
ATOM     28  C38 MOL     1       6.798   2.666   1.957  1.00  0.00     0.005 A 
ATOM     29  C35 MOL     1       7.758   0.292   0.978  1.00  0.00     0.003 C 
ATOM     30  C34 MOL     1       8.459   0.832   2.059  1.00  0.00     0.030 C 
ATOM     31  C33 MOL     1       7.992   2.074   2.523  1.00  0.00     0.043 A 
ATOM     32  N32 MOL     1       8.415   2.912   3.566  1.00  0.00    -0.365 N 
ATOM     33  C31 MOL     1       7.558   4.025   3.606  1.00  0.00     0.096 A 
ATOM     34  H73 MOL     1       9.189   2.727   4.142  1.00  0.00     0.165 HD
ATOM     35  C30 MOL     1       6.573   3.929   2.615  1.00  0.00    -0.028 A 
ATOM     36  C29 MOL     1       5.196   4.454   2.541  1.00  0.00     0.077 C 
ATOM     37  N26 MOL     1       2.792   3.749   2.402  1.00  0.00     0.090 N 
ATOM     38  C25 MOL     1       1.905   2.578   2.493  1.00  0.00     0.286 C 
ATOM     39  C27 MOL     1       2.470   4.659   3.493  1.00  0.00     0.310 C 
ENDBRANCH  19  22
ENDBRANCH  12  18
BRANCH   8  40
ATOM     40  C9  MOL     1      -4.580   1.140  -1.452  1.00  0.00     0.073 C 
BRANCH  40  41
ATOM     41  C10 MOL     1      -5.877   1.673  -1.963  1.00  0.00    -0.056 A 
ATOM     42  C15 MOL     1      -5.839   2.380  -3.177  1.00  0.00     0.007 A 
ATOM     43  C14 MOL     1      -7.015   2.926  -3.719  1.00  0.00     0.001 A 
ATOM     44  C13 MOL     1      -8.229   2.776  -3.048  1.00  0.00     0.000 A 
ATOM     45  C12 MOL     1      -8.265   2.092  -1.834  1.00  0.00     0.001 A 
ATOM     46  C11 MOL     1      -7.097   1.549  -1.293  1.00  0.00     0.007 A 
ENDBRANCH  40  41
ENDBRANCH   8  40
TORSDOF 5
