REMARK  2 active torsions:
REMARK  status: ('A' for Active; 'I' for Inactive)
REMARK    1  A    between atoms: C4_4  and  O5_5 
REMARK    2  A    between atoms: C17_17  and  O18_18 
ROOT
ATOM      1  C1  MOL     1      -2.215   1.055  -0.022  1.00  0.00     0.001 C 
ATOM      2  C2  MOL     1      -2.612   1.709   1.296  1.00  0.00     0.008 C 
ATOM      3  C3  MOL     1      -4.074   1.306   1.503  1.00  0.00     0.033 C 
ATOM      4  C4  MOL     1      -4.390   0.208   0.465  1.00  0.00     0.126 C 
ATOM      5  C6  MOL     1      -3.004  -0.275  -0.037  1.00  0.00    -0.014 C 
ATOM      6  C7  MOL     1      -2.469  -1.313   0.934  1.00  0.00     0.018 C 
ATOM      7  C8  MOL     1      -2.966  -0.810  -1.457  1.00  0.00     0.013 C 
ATOM      8  C9  MOL     1      -1.534  -0.988  -1.938  1.00  0.00     0.010 C 
ATOM      9  C10 MOL     1      -0.667   0.256  -1.768  1.00  0.00     0.023 C 
ATOM     10  C11 MOL     1       0.764   0.036  -2.151  1.00  0.00    -0.047 A 
ATOM     11  C12 MOL     1       1.786   0.804  -1.559  1.00  0.00    -0.049 A 
ATOM     12  C13 MOL     1       1.525   1.798  -0.479  1.00  0.00     0.039 C 
ATOM     13  C14 MOL     1       0.058   2.100  -0.265  1.00  0.00     0.010 C 
ATOM     14  C15 MOL     1      -0.756   0.822  -0.340  1.00  0.00    -0.001 C 
ATOM     15  C16 MOL     1       3.115   0.634  -1.959  1.00  0.00     0.044 A 
ATOM     16  C17 MOL     1       3.429  -0.303  -2.951  1.00  0.00     0.066 A 
ATOM     17  C19 MOL     1       2.422  -1.072  -3.548  1.00  0.00     0.037 A 
ATOM     18  C20 MOL     1       1.104  -0.892  -3.142  1.00  0.00     0.011 A 
ENDROOT
BRANCH   4  19
ATOM     19  O5  MOL     1      -5.158  -0.790   1.108  1.00  0.00    -0.395 OA
ATOM     20  H27 MOL     1      -5.223  -1.528   0.490  1.00  0.00     0.210 HD
ENDBRANCH   4  19
BRANCH  16  21
ATOM     21  O18 MOL     1       4.758  -0.417  -3.295  1.00  0.00    -0.361 OA
ATOM     22  H42 MOL     1       4.828  -1.090  -3.987  1.00  0.00     0.217 HD
ENDBRANCH  16  21
TORSDOF 2
