REMARK  11 active torsions:
REMARK  status: ('A' for Active; 'I' for Inactive)
REMARK    1  A    between atoms: O2_2  and  C3_3 
REMARK    2  A    between atoms: C12_12  and  O13_13 
REMARK    3  A    between atoms: C17_17  and  O18_18 
REMARK    4  A    between atoms: C17_17  and  C31_31 
REMARK    5  A    between atoms: C20_20  and  O21_21 
REMARK    6  A    between atoms: O21_21  and  C22_22 
REMARK    7  A    between atoms: C24_24  and  N25_25 
REMARK    8  A    between atoms: C26_26  and  O27_27 
REMARK    9  A    between atoms: C31_31  and  C33_33 
REMARK   10  A    between atoms: C33_33  and  O34_34 
REMARK   11  A    between atoms: C35_35  and  O36_36 
ROOT
ATOM      1  C1  MOL     1      -3.605  -0.791  -5.506  1.00  0.00     0.210 C 
ATOM      2  O2  MOL     1      -3.340  -0.738  -4.108  1.00  0.00    -0.355 OA
ENDROOT
BRANCH   2   3
ATOM      3  C3  MOL     1      -3.467  -1.917  -3.411  1.00  0.00     0.083 A 
ATOM      4  C4  MOL     1      -3.756  -3.154  -4.014  1.00  0.00     0.038 A 
ATOM      5  C5  MOL     1      -3.842  -4.298  -3.230  1.00  0.00     0.004 A 
ATOM      6  C6  MOL     1      -3.635  -4.231  -1.851  1.00  0.00     0.017 A 
ATOM      7  C7  MOL     1      -3.338  -3.006  -1.253  1.00  0.00     0.032 A 
ATOM      8  C8  MOL     1      -3.263  -1.831  -2.016  1.00  0.00     0.062 A 
ATOM      9  C38 MOL     1      -3.100  -2.942   0.209  1.00  0.00     0.197 C 
ATOM     10  C9  MOL     1      -2.988  -0.539  -1.358  1.00  0.00     0.200 C 
ATOM     11  C11 MOL     1      -2.245  -0.607  -0.080  1.00  0.00     0.066 A 
ATOM     12  O10 MOL     1      -3.355   0.540  -1.846  1.00  0.00    -0.286 OA
ATOM     13  C37 MOL     1      -2.263  -1.808   0.660  1.00  0.00     0.066 A 
ATOM     14  C12 MOL     1      -1.517   0.485   0.416  1.00  0.00     0.090 A 
ATOM     15  C35 MOL     1      -1.491  -1.918   1.818  1.00  0.00     0.088 A 
ATOM     16  C15 MOL     1      -0.740  -0.820   2.312  1.00  0.00    -0.009 A 
ATOM     17  C14 MOL     1      -0.786   0.391   1.633  1.00  0.00     0.014 A 
ATOM     18  C16 MOL     1       0.064  -1.047   3.541  1.00  0.00     0.088 C 
ATOM     19  C20 MOL     1      -0.023   1.582   2.140  1.00  0.00     0.164 C 
ATOM     20  C19 MOL     1       0.305   1.468   3.625  1.00  0.00     0.083 C 
ATOM     21  C17 MOL     1       0.944   0.129   3.980  1.00  0.00     0.127 C 
ATOM     22  O39 MOL     1      -3.579  -3.774   0.985  1.00  0.00    -0.286 OA
BRANCH  15  23
ATOM     23  O36 MOL     1      -1.411  -3.158   2.414  1.00  0.00    -0.359 OA
ATOM     24  H68 MOL     1      -1.491  -3.029   3.372  1.00  0.00     0.217 HD
ENDBRANCH  15  23
BRANCH  19  25
ATOM     25  O21 MOL     1      -0.821   2.762   2.007  1.00  0.00    -0.351 OA
BRANCH  25  26
ATOM     26  C22 MOL     1      -0.253   3.777   1.189  1.00  0.00     0.263 C 
ATOM     27  C23 MOL     1      -1.325   4.823   0.921  1.00  0.00     0.098 C 
ATOM     28  C24 MOL     1      -1.820   5.539   2.188  1.00  0.00     0.253 C 
ATOM     29  C26 MOL     1      -0.795   5.304   3.332  1.00  0.00     0.179 C 
ATOM     30  C28 MOL     1       0.659   5.284   2.843  1.00  0.00     0.151 C 
ATOM     31  O30 MOL     1       0.881   4.236   1.898  1.00  0.00    -0.354 OA
ATOM     32  C29 MOL     1       1.117   6.607   2.261  1.00  0.00     0.042 C 
BRANCH  28  33
ATOM     33  N25 MOL     1      -2.181   6.916   1.919  1.00  0.00     0.085 N 
ATOM     34  H57 MOL     1      -1.370   7.449   1.666  1.00  0.00     0.313 HD
ATOM     35  H58 MOL     1      -2.580   7.323   2.744  1.00  0.00     0.313 HD
ENDBRANCH  28  33
BRANCH  29  36
ATOM     36  O27 MOL     1      -0.985   6.311   4.313  1.00  0.00    -0.391 OA
ATOM     37  H60 MOL     1      -0.387   6.104   5.041  1.00  0.00     0.210 HD
ENDBRANCH  29  36
ENDBRANCH  25  26
ENDBRANCH  19  25
BRANCH  21  38
ATOM     38  O18 MOL     1       1.042  -0.009   5.397  1.00  0.00    -0.382 OA
ATOM     39  H49 MOL     1       1.379   0.825   5.751  1.00  0.00     0.211 HD
ENDBRANCH  21  38
BRANCH  21  40
ATOM     40  C31 MOL     1       2.345   0.047   3.373  1.00  0.00     0.184 C 
ATOM     41  O32 MOL     1       2.565  -0.434   2.261  1.00  0.00    -0.292 OA
BRANCH  40  42
ATOM     42  C33 MOL     1       3.500   0.547   4.219  1.00  0.00     0.245 C 
BRANCH  42  43
ATOM     43  O34 MOL     1       3.099   1.729   4.893  1.00  0.00    -0.393 OA
ATOM     44  H67 MOL     1       3.879   2.059   5.354  1.00  0.00     0.209 HD
ENDBRANCH  42  43
ENDBRANCH  40  42
ENDBRANCH  21  40
BRANCH  14  45
ATOM     45  O13 MOL     1      -1.398   1.685  -0.233  1.00  0.00    -0.359 OA
ATOM     46  H46 MOL     1      -2.075   1.760  -0.926  1.00  0.00     0.217 HD
ENDBRANCH  14  45
ENDBRANCH   2   3
TORSDOF 11
