REMARK  11 active torsions:
REMARK  status: ('A' for Active; 'I' for Inactive)
REMARK    1  A    between atoms: C2_2  and  C3_3 
REMARK    2  A    between atoms: C3_3  and  N6_6 
REMARK    3  A    between atoms: C3_3  and  C4_4 
REMARK    4  A    between atoms: C4_4  and  O5_5 
REMARK    5  A    between atoms: N6_6  and  C7_7 
REMARK    6  A    between atoms: C7_7  and  C8_8 
REMARK    7  A    between atoms: C8_8  and  N9_9 
REMARK    8  A    between atoms: N9_9  and  C10_10 
REMARK    9  A    between atoms: C10_10  and  C11_11 
REMARK   10  A    between atoms: C10_10  and  C13_13 
REMARK   11  A    between atoms: C13_13  and  O14_14 
ROOT
ATOM      1  C1  MOL     1       4.178  -1.665   1.236  1.00  0.00     0.007 C 
ATOM      2  C2  MOL     1       4.267  -0.800   0.007  1.00  0.00     0.033 C 
ENDROOT
BRANCH   2   3
ATOM      3  C3  MOL     1       3.135   0.241  -0.057  1.00  0.00     0.243 C 
BRANCH   3   4
ATOM      4  N6  MOL     1       1.835  -0.399  -0.171  1.00  0.00     0.091 N 
ATOM      5  H24 MOL     1       1.692  -0.732  -1.107  1.00  0.00     0.316 HD
BRANCH   4   6
ATOM      6  C7  MOL     1       0.723   0.428   0.257  1.00  0.00     0.300 C 
BRANCH   6   7
ATOM      7  C8  MOL     1      -0.635  -0.253  -0.028  1.00  0.00     0.300 C 
BRANCH   7   8
ATOM      8  N9  MOL     1      -1.748   0.535   0.459  1.00  0.00     0.091 N 
ATOM      9  H29 MOL     1      -1.613   1.506   0.238  1.00  0.00     0.316 HD
BRANCH   8  10
ATOM     10  C10 MOL     1      -3.046   0.097  -0.049  1.00  0.00     0.243 C 
BRANCH  10  11
ATOM     11  C11 MOL     1      -3.472  -1.265   0.531  1.00  0.00     0.033 C 
ATOM     12  C12 MOL     1      -3.188  -2.399  -0.420  1.00  0.00     0.007 C 
ENDBRANCH  10  11
BRANCH  10  13
ATOM     13  C13 MOL     1      -4.137   1.148   0.269  1.00  0.00     0.199 C 
BRANCH  13  14
ATOM     14  O14 MOL     1      -5.234   1.013  -0.611  1.00  0.00    -0.399 OA
ATOM     15  H38 MOL     1      -5.581   0.119  -0.511  1.00  0.00     0.209 HD
ENDBRANCH  13  14
ENDBRANCH  10  13
ENDBRANCH   8  10
ENDBRANCH   7   8
ENDBRANCH   6   7
ENDBRANCH   4   6
ENDBRANCH   3   4
BRANCH   3  16
ATOM     16  C4  MOL     1       3.490   1.219  -1.202  1.00  0.00     0.199 C 
BRANCH  16  17
ATOM     17  O5  MOL     1       2.607   2.323  -1.119  1.00  0.00    -0.399 OA
ATOM     18  H23 MOL     1       2.890   2.957  -1.789  1.00  0.00     0.209 HD
ENDBRANCH  16  17
ENDBRANCH   3  16
ENDBRANCH   2   3
TORSDOF 11
