REMARK  5 active torsions:
REMARK  status: ('A' for Active; 'I' for Inactive)
REMARK    1  A    between atoms: O1_1  and  C2_2 
REMARK    2  A    between atoms: C2_2  and  C4_4 
REMARK    3  A    between atoms: C4_4  and  C5_5 
REMARK    4  A    between atoms: C10_10  and  N11_11 
REMARK    5  A    between atoms: N11_11  and  C12_12 
ROOT
ATOM      1  O1  MOL     1       3.793   1.784   1.527  1.00  0.00    -0.776 OA
ATOM      2  H20 MOL     1       4.750   1.617   1.537  1.00  0.00     0.167 HD
ENDROOT
BRANCH   1   3
ATOM      3  C2  MOL     1       3.117   0.598   1.538  1.00  0.00     0.143 C 
ATOM      4  O3  MOL     1       3.809  -0.423   1.550  1.00  0.00    -0.650 OA
BRANCH   3   5
ATOM      5  C4  MOL     1       1.631   0.768   1.475  1.00  0.00     0.150 C 
BRANCH   5   6
ATOM      6  C5  MOL     1       0.881   0.160   2.607  1.00  0.00    -0.022 A 
ATOM      7  C10 MOL     1      -0.537   0.283   2.645  1.00  0.00     0.039 A 
ATOM      8  C9  MOL     1      -1.241  -0.294   3.723  1.00  0.00     0.030 A 
ATOM      9  C8  MOL     1      -0.568  -0.985   4.723  1.00  0.00     0.002 A 
ATOM     10  C7  MOL     1       0.818  -1.109   4.680  1.00  0.00     0.001 A 
ATOM     11  C6  MOL     1       1.530  -0.538   3.627  1.00  0.00     0.010 A 
BRANCH   7  12
ATOM     12  N11 MOL     1      -1.201   0.938   1.581  1.00  0.00    -0.353 N 
ATOM     13  H27 MOL     1      -0.764   1.806   1.331  1.00  0.00     0.166 HD
BRANCH  12  14
ATOM     14  C12 MOL     1      -2.611   1.012   1.565  1.00  0.00     0.076 A 
ATOM     15  C13 MOL     1      -3.391  -0.125   1.240  1.00  0.00     0.062 A 
ATOM     16  C15 MOL     1      -4.782  -0.036   1.140  1.00  0.00     0.026 A 
ATOM     17 Cl14 MOL     1      -2.659  -1.628   0.949  1.00  0.00    -0.082 Cl
ATOM     18  C16 MOL     1      -5.426   1.182   1.343  1.00  0.00     0.003 A 
ATOM     19  C17 MOL     1      -4.685   2.320   1.650  1.00  0.00     0.026 A 
ATOM     20  C18 MOL     1      -3.297   2.236   1.767  1.00  0.00     0.062 A 
ATOM     21 Cl19 MOL     1      -2.428   3.650   2.151  1.00  0.00    -0.082 Cl
ENDBRANCH  12  14
ENDBRANCH   7  12
ENDBRANCH   5   6
ENDBRANCH   3   5
ENDBRANCH   1   3
TORSDOF 5
