REMARK  5 active torsions:
REMARK  status: ('A' for Active; 'I' for Inactive)
REMARK    1  A    between atoms: C14_14  and  O15_15 
REMARK    2  A    between atoms: C17_17  and  C18_18 
REMARK    3  A    between atoms: C18_18  and  C19_19 
REMARK    4  A    between atoms: C19_19  and  C20_20 
REMARK    5  A    between atoms: C20_20  and  C21_21 
ROOT
ATOM      1  C1  MOL     1       3.575  -0.918  -0.220  1.00  0.00     0.054 C 
ATOM      2  C2  MOL     1       3.937  -1.703   0.998  1.00  0.00    -0.014 C 
ATOM      3  C3  MOL     1       5.179  -1.674   1.508  1.00  0.00    -0.087 C 
ATOM      4  C4  MOL     1       5.560  -2.482   2.691  1.00  0.00     0.043 C 
ATOM      5  C5  MOL     1       6.268  -0.815   0.960  1.00  0.00     0.034 C 
ATOM      6  C6  MOL     1       5.865   0.019  -0.245  1.00  0.00     0.013 C 
ATOM      7  C7  MOL     1       4.393   0.380  -0.182  1.00  0.00     0.032 C 
ATOM      8  C8  MOL     1       3.930   1.356  -1.263  1.00  0.00     0.065 C 
ATOM      9  C9  MOL     1       4.671   2.687  -1.170  1.00  0.00     0.046 C 
ATOM     10  C10 MOL     1       4.033   0.795  -2.673  1.00  0.00     0.046 C 
ATOM     11  O11 MOL     1       2.549   1.713  -0.994  1.00  0.00    -0.340 OA
ATOM     12  C12 MOL     1       1.692   0.667  -0.721  1.00  0.00     0.080 A 
ATOM     13  C13 MOL     1       2.122  -0.629  -0.375  1.00  0.00     0.017 A 
ATOM     14  C14 MOL     1       1.126  -1.612  -0.237  1.00  0.00     0.075 A 
ATOM     15  C16 MOL     1      -0.242  -1.298  -0.311  1.00  0.00     0.044 A 
ATOM     16  C17 MOL     1      -0.639   0.012  -0.571  1.00  0.00    -0.053 A 
ATOM     17  C23 MOL     1       0.330   0.994  -0.802  1.00  0.00     0.044 A 
ENDROOT
BRANCH  14  18
ATOM     18  O15 MOL     1       1.402  -2.944  -0.014  1.00  0.00    -0.360 OA
ATOM     19  H40 MOL     1       2.323  -3.107  -0.268  1.00  0.00     0.217 HD
ENDBRANCH  14  18
BRANCH  16  20
ATOM     20  C18 MOL     1      -2.070   0.421  -0.639  1.00  0.00     0.039 C 
BRANCH  20  21
ATOM     21  C19 MOL     1      -3.064  -0.705  -0.452  1.00  0.00     0.005 C 
BRANCH  21  22
ATOM     22  C20 MOL     1      -4.485  -0.191  -0.554  1.00  0.00    -0.000 C 
BRANCH  22  23
ATOM     23  C21 MOL     1      -5.487  -1.311  -0.370  1.00  0.00    -0.005 C 
ATOM     24  C22 MOL     1      -6.904  -0.807  -0.472  1.00  0.00     0.005 C 
ENDBRANCH  22  23
ENDBRANCH  21  22
ENDBRANCH  20  21
ENDBRANCH  16  20
TORSDOF 5
