REMARK  3 active torsions:
REMARK  status: ('A' for Active; 'I' for Inactive)
REMARK    1  A    between atoms: C1_1  and  C2_2 
REMARK    2  A    between atoms: C2_2  and  C3_3 
REMARK    3  A    between atoms: C3_3  and  N4_4 
ROOT
ATOM      1  C1  MOL     1       0.047  -0.324  -1.345  1.00  0.00    -0.012 C 
ATOM      2  C7  MOL     1      -0.946  -0.028  -0.486  1.00  0.00    -0.016 C 
ATOM      3  C8  MOL     1      -2.261  -0.666  -0.648  1.00  0.00    -0.017 A 
ATOM      4  C9  MOL     1      -2.428  -2.050  -0.562  1.00  0.00     0.013 A 
ATOM      5  C10 MOL     1      -3.696  -2.609  -0.724  1.00  0.00     0.001 A 
ATOM      6  C11 MOL     1      -4.797  -1.791  -0.975  1.00  0.00     0.001 A 
ATOM      7  C12 MOL     1      -4.635  -0.408  -1.066  1.00  0.00     0.010 A 
ATOM      8  C13 MOL     1      -3.370   0.157  -0.906  1.00  0.00    -0.023 A 
ATOM      9  C14 MOL     1      -3.143   1.626  -1.027  1.00  0.00     0.215 C 
ATOM     10  O15 MOL     1      -2.884   2.258   0.224  1.00  0.00    -0.346 OA
ATOM     11  C16 MOL     1      -1.746   1.920   0.930  1.00  0.00     0.080 A 
ATOM     12  C17 MOL     1      -1.571   2.744   2.065  1.00  0.00     0.037 A 
ATOM     13  C18 MOL     1      -0.494   2.540   2.913  1.00  0.00     0.003 A 
ATOM     14  C19 MOL     1       0.422   1.519   2.647  1.00  0.00     0.001 A 
ATOM     15  C20 MOL     1       0.252   0.712   1.531  1.00  0.00     0.015 A 
ATOM     16  C21 MOL     1      -0.827   0.895   0.644  1.00  0.00     0.008 A 
ENDROOT
BRANCH   1  17
ATOM     17  C2  MOL     1       1.393   0.291  -1.385  1.00  0.00     0.058 C 
BRANCH  17  18
ATOM     18  C3  MOL     1       2.464  -0.791  -1.220  1.00  0.00     0.275 C 
BRANCH  18  19
ATOM     19  N4  MOL     1       3.816  -0.271  -1.074  1.00  0.00     0.080 N 
ATOM     20  C6  MOL     1       4.762  -1.314  -0.740  1.00  0.00     0.309 C 
ATOM     21  C5  MOL     1       4.249   0.543  -2.186  1.00  0.00     0.309 C 
ENDBRANCH  18  19
ENDBRANCH  17  18
ENDBRANCH   1  17
TORSDOF 3
