REMARK  6 active torsions:
REMARK  status: ('A' for Active; 'I' for Inactive)
REMARK    1  A    between atoms: C8_8  and  C9_9 
REMARK    2  A    between atoms: C9_9  and  C10_10 
REMARK    3  A    between atoms: C19_19  and  C43_43 
REMARK    4  A    between atoms: C19_19  and  N20_20 
REMARK       I    between atoms: N20_20  and  C21_21 
REMARK    5  A    between atoms: C21_21  and  C23_23 
REMARK    6  A    between atoms: C41_41  and  O42_42 
ROOT
ATOM      1  C1  MOL     1      -3.283  -2.220  -0.657  1.00  0.00     0.173 C 
ATOM      2  C2  MOL     1      -2.787  -3.025  -1.877  1.00  0.00     0.034 C 
ATOM      3  C3  MOL     1      -3.970  -3.884  -2.310  1.00  0.00     0.022 C 
ATOM      4  C4  MOL     1      -5.175  -3.417  -1.475  1.00  0.00     0.127 C 
ATOM      5  N5  MOL     1      -4.742  -2.287  -0.658  1.00  0.00    -0.338 N 
ATOM      6  C6  MOL     1      -5.568  -1.180  -0.525  1.00  0.00     0.243 C 
ATOM      7  O7  MOL     1      -6.801  -1.288  -0.667  1.00  0.00    -0.271 OA
ATOM      8  C8  MOL     1      -4.982   0.199  -0.147  1.00  0.00     0.189 C 
ATOM      9  N16 MOL     1      -3.579   0.146   0.152  1.00  0.00    -0.277 N 
ATOM     10  C17 MOL     1      -2.941   0.679   1.260  1.00  0.00     0.281 C 
ATOM     11  O18 MOL     1      -3.427   1.430   2.109  1.00  0.00    -0.268 OA
ATOM     12  C19 MOL     1      -1.447   0.174   1.205  1.00  0.00     0.227 C 
ATOM     13  O40 MOL     1      -1.450  -0.822   0.148  1.00  0.00    -0.295 OA
ATOM     14  C41 MOL     1      -2.694  -0.773  -0.581  1.00  0.00     0.276 C 
ENDROOT
BRANCH  14  15
ATOM     15  O42 MOL     1      -2.347  -0.307  -1.857  1.00  0.00    -0.347 OA
ATOM     16  H79 MOL     1      -1.488   0.148  -1.802  1.00  0.00     0.215 HD
ENDBRANCH  14  15
BRANCH  12  17
ATOM     17  C43 MOL     1      -1.077  -0.576   2.514  1.00  0.00     0.043 C 
ATOM     18  C44 MOL     1      -0.973   0.366   3.693  1.00  0.00     0.015 C 
ATOM     19  C45 MOL     1       0.205  -1.360   2.339  1.00  0.00     0.015 C 
ENDBRANCH  12  17
BRANCH  12  20
ATOM     20  N20 MOL     1      -0.600   1.300   0.889  1.00  0.00    -0.321 N 
ATOM     21  C21 MOL     1       0.342   1.371  -0.123  1.00  0.00     0.226 C 
ATOM     22  O22 MOL     1       0.439   0.486  -0.994  1.00  0.00    -0.273 OA
ATOM     23  H61 MOL     1      -0.632   2.025   1.570  1.00  0.00     0.166 HD
BRANCH  21  24
ATOM     24  C23 MOL     1       1.214   2.626  -0.156  1.00  0.00     0.107 C 
ATOM     25  C39 MOL     1       2.174   2.559  -1.330  1.00  0.00     0.027 C 
ATOM     26  C38 MOL     1       3.075   3.779  -1.352  1.00  0.00     0.054 C 
ATOM     27  C36 MOL     1       4.055   3.710  -2.481  1.00  0.00    -0.039 A 
ATOM     28  C27 MOL     1       3.822   3.944   0.010  1.00  0.00     0.235 C 
ATOM     29  C35 MOL     1       3.918   3.051  -3.694  1.00  0.00     0.008 A 
ATOM     30  C37 MOL     1       5.232   4.433  -2.287  1.00  0.00     0.005 A 
ATOM     31  C34 MOL     1       4.933   3.135  -4.670  1.00  0.00     0.003 A 
ATOM     32  C33 MOL     1       6.103   3.862  -4.494  1.00  0.00     0.030 A 
ATOM     33  C32 MOL     1       6.267   4.535  -3.271  1.00  0.00     0.043 A 
ATOM     34  N31 MOL     1       7.268   5.343  -2.721  1.00  0.00    -0.365 N 
ATOM     35  H72 MOL     1       8.111   5.591  -3.163  1.00  0.00     0.165 HD
ATOM     36  C30 MOL     1       6.882   5.727  -1.424  1.00  0.00     0.096 A 
ATOM     37  C29 MOL     1       5.636   5.182  -1.125  1.00  0.00    -0.028 A 
ATOM     38  C28 MOL     1       4.732   5.205   0.032  1.00  0.00     0.077 C 
ATOM     39  N25 MOL     1       2.862   3.963   1.125  1.00  0.00     0.090 N 
ATOM     40  C24 MOL     1       2.011   2.779   1.145  1.00  0.00     0.286 C 
ATOM     41  C26 MOL     1       3.484   4.199   2.410  1.00  0.00     0.310 C 
ENDBRANCH  21  24
ENDBRANCH  12  20
BRANCH   8  42
ATOM     42  C9  MOL     1      -5.332   1.176  -1.298  1.00  0.00     0.073 C 
BRANCH  42  43
ATOM     43  C10 MOL     1      -6.131   2.329  -0.804  1.00  0.00    -0.056 A 
ATOM     44  C11 MOL     1      -7.396   2.107  -0.243  1.00  0.00     0.007 A 
ATOM     45  C12 MOL     1      -8.164   3.181   0.202  1.00  0.00     0.001 A 
ATOM     46  C13 MOL     1      -7.677   4.485   0.085  1.00  0.00     0.000 A 
ATOM     47  C14 MOL     1      -6.422   4.710  -0.475  1.00  0.00     0.001 A 
ATOM     48  C15 MOL     1      -5.648   3.637  -0.918  1.00  0.00     0.007 A 
ENDBRANCH  42  43
ENDBRANCH   8  42
TORSDOF 6
