REMARK  6 active torsions:
REMARK  status: ('A' for Active; 'I' for Inactive)
REMARK    1  A    between atoms: N2_2  and  C3_3 
REMARK    2  A    between atoms: C3_3  and  C4_4 
REMARK    3  A    between atoms: C4_4  and  O5_5 
REMARK    4  A    between atoms: C4_4  and  C6_6 
REMARK    5  A    between atoms: C8_8  and  O9_9 
REMARK    6  A    between atoms: C10_10  and  O11_11 
ROOT
ATOM      1  C1  MOL     1      -3.629   0.513  -0.618  1.00  0.00     0.306 C 
ATOM      2  N2  MOL     1      -3.178  -0.852  -0.647  1.00  0.00     0.082 N 
ATOM      3  H17 MOL     1      -3.559  -1.330  -1.443  1.00  0.00     0.315 HD
ENDROOT
BRANCH   2   4
ATOM      4  C3  MOL     1      -1.741  -1.020  -0.628  1.00  0.00     0.305 C 
BRANCH   4   5
ATOM      5  C4  MOL     1      -1.114  -0.734   0.757  1.00  0.00     0.179 C 
BRANCH   5   6
ATOM      6  O5  MOL     1      -0.969   0.678   0.846  1.00  0.00    -0.389 OA
ATOM      7  H21 MOL     1      -0.524   0.863   1.682  1.00  0.00     0.210 HD
ENDBRANCH   5   6
BRANCH   5   8
ATOM      8  C6  MOL     1       0.205  -1.444   0.877  1.00  0.00    -0.025 A 
ATOM      9  C13 MOL     1       0.231  -2.771   1.319  1.00  0.00     0.012 A 
ATOM     10  C12 MOL     1       1.439  -3.454   1.439  1.00  0.00     0.040 A 
ATOM     11  C10 MOL     1       2.633  -2.804   1.115  1.00  0.00     0.098 A 
ATOM     12  C8  MOL     1       2.615  -1.465   0.668  1.00  0.00     0.099 A 
ATOM     13  C7  MOL     1       1.394  -0.789   0.548  1.00  0.00     0.049 A 
BRANCH  11  14
ATOM     14  O11 MOL     1       3.875  -3.399   1.207  1.00  0.00    -0.358 OA
ATOM     15  H24 MOL     1       3.745  -4.307   1.515  1.00  0.00     0.217 HD
ENDBRANCH  11  14
BRANCH  12  16
ATOM     16  O9  MOL     1       3.755  -0.774   0.336  1.00  0.00    -0.358 OA
ATOM     17  H23 MOL     1       4.512  -1.368   0.459  1.00  0.00     0.217 HD
ENDBRANCH  12  16
ENDBRANCH   5   8
ENDBRANCH   4   5
ENDBRANCH   2   4
TORSDOF 6
