REMARK  8 active torsions:
REMARK  status: ('A' for Active; 'I' for Inactive)
REMARK    1  A    between atoms: C2_2  and  N5_5 
REMARK    2  A    between atoms: N5_5  and  C6_6 
REMARK    3  A    between atoms: C6_6  and  C7_7 
REMARK    4  A    between atoms: C7_7  and  C9_9 
REMARK    5  A    between atoms: C7_7  and  O8_8 
REMARK    6  A    between atoms: C11_11  and  C12_12 
REMARK    7  A    between atoms: C12_12  and  O13_13 
REMARK    8  A    between atoms: C14_14  and  O15_15 
ROOT
ATOM      1  C1  MOL     1      -5.065   1.764   0.632  1.00  0.00     0.048 C 
ATOM      2  C2  MOL     1      -3.712   1.028   0.591  1.00  0.00     0.147 C 
ATOM      3  C3  MOL     1      -2.933   1.440   1.853  1.00  0.00     0.048 C 
ATOM      4  C4  MOL     1      -3.999  -0.477   0.692  1.00  0.00     0.048 C 
ENDROOT
BRANCH   2   5
ATOM      5  N5  MOL     1      -3.024   1.369  -0.663  1.00  0.00     0.094 N 
ATOM      6  H27 MOL     1      -2.781   2.344  -0.647  1.00  0.00     0.317 HD
BRANCH   5   7
ATOM      7  C6  MOL     1      -1.850   0.572  -0.949  1.00  0.00     0.306 C 
BRANCH   7   8
ATOM      8  C7  MOL     1      -0.996   1.170  -2.089  1.00  0.00     0.179 C 
BRANCH   8   9
ATOM      9  C9  MOL     1       0.074   0.199  -2.491  1.00  0.00    -0.027 A 
ATOM     10  C17 MOL     1      -0.183  -0.738  -3.502  1.00  0.00     0.012 A 
ATOM     11  C16 MOL     1       0.791  -1.650  -3.880  1.00  0.00     0.038 A 
ATOM     12  C14 MOL     1       2.050  -1.628  -3.245  1.00  0.00     0.074 A 
ATOM     13  C11 MOL     1       2.325  -0.688  -2.237  1.00  0.00    -0.001 A 
ATOM     14  C10 MOL     1       1.320   0.211  -1.864  1.00  0.00     0.022 A 
BRANCH  12  15
ATOM     15  O15 MOL     1       2.953  -2.553  -3.705  1.00  0.00    -0.360 OA
ATOM     16  H36 MOL     1       3.716  -2.575  -3.107  1.00  0.00     0.217 HD
ENDBRANCH  12  15
BRANCH  13  17
ATOM     17  C12 MOL     1       3.660  -0.589  -1.577  1.00  0.00     0.205 C 
BRANCH  17  18
ATOM     18  O13 MOL     1       4.078  -1.890  -1.179  1.00  0.00    -0.396 OA
ATOM     19  H35 MOL     1       4.893  -1.776  -0.676  1.00  0.00     0.209 HD
ENDBRANCH  17  18
ENDBRANCH  13  17
ENDBRANCH   8   9
BRANCH   8  20
ATOM     20  O8  MOL     1      -0.451   2.385  -1.584  1.00  0.00    -0.389 OA
ATOM     21  H31 MOL     1       0.103   2.752  -2.282  1.00  0.00     0.210 HD
ENDBRANCH   8  20
ENDBRANCH   7   8
ENDBRANCH   5   7
ENDBRANCH   2   5
TORSDOF 8
